C20H23FNO2
NCtclcactv07152614463D 0   0.00000     0.00000
 
 47 48  0  0  0  0  0  0  0  0999 V2000
    4.1510    4.2334    0.8079 N   0  3  0  0  0  0  0  0  0  0  0  0
    4.8327    3.9281    0.1295 H   0  0  0  0  0  0  0  0  0  0  0  0
    4.6233    4.6610    1.5903 H   0  0  0  0  0  0  0  0  0  0  0  0
    3.5300    4.9049    0.3819 H   0  0  0  0  0  0  0  0  0  0  0  0
    3.3751    3.0774    1.2766 C   0  0  0  0  0  0  0  0  0  0  0  0
    2.6589    2.4289    0.0903 C   0  0  0  0  0  0  0  0  0  0  0  0
    1.8508    1.2250    0.5785 C   0  0  0  0  0  0  0  0  0  0  0  0
    1.1451    0.5911   -0.5848 C   0  0  0  0  0  0  0  0  0  0  0  0
   -0.1152    0.9067   -0.8938 C   0  0  0  0  0  0  0  0  0  0  0  0
   -0.9384    1.8494   -0.0625 C   0  0  0  0  0  0  0  0  0  0  0  0
   -2.3883    1.4230   -0.1254 C   0  0  0  0  0  0  0  0  0  0  0  0
   -3.3331    2.3204   -0.5806 C   0  0  0  0  0  0  0  0  0  0  0  0
   -4.6662    1.9536   -0.6554 C   0  0  0  0  0  0  0  0  0  0  0  0
   -5.0597    0.6797   -0.2771 C   0  0  0  0  0  0  0  0  0  0  0  0
   -4.1295   -0.2248    0.1811 C   0  0  0  0  0  0  0  0  0  0  0  0
   -2.7795    0.1386    0.2662 C   0  0  0  0  0  0  0  0  0  0  0  0
   -1.7875   -0.8344    0.7350 C   0  0  0  0  0  0  0  0  0  0  0  0
   -0.5475   -0.4112    1.0689 F   0  0  0  0  0  0  0  0  0  0  0  0
   -2.0628   -2.1483    0.8804 C   0  0  0  0  0  0  0  0  0  0  0  0
   -0.9947   -3.0398    1.1457 C   0  0  0  0  0  0  0  0  0  0  0  0
    0.2090   -2.7978    0.5781 C   0  0  0  0  0  0  0  0  0  0  0  0
    1.3452   -3.5849    0.8517 C   0  0  0  0  0  0  0  0  0  0  0  0
    2.4533   -3.5021    0.1057 C   0  0  0  0  0  0  0  0  0  0  0  0
    2.5334   -2.6941   -0.9705 O   0  0  0  0  0  0  0  0  0  0  0  0
    2.8799   -1.3218   -0.7799 C   0  0  0  0  0  0  0  0  0  0  0  0
    1.7918   -0.4666   -1.3650 C   0  0  0  0  0  0  0  0  0  0  0  0
    1.4394   -0.6534   -2.5161 O   0  0  0  0  0  0  0  0  0  0  0  0
    4.0460    2.3520    1.7368 H   0  0  0  0  0  0  0  0  0  0  0  0
    2.6387    3.4072    2.0095 H   0  0  0  0  0  0  0  0  0  0  0  0
    1.9880    3.1544   -0.3699 H   0  0  0  0  0  0  0  0  0  0  0  0
    3.3953    2.0992   -0.6426 H   0  0  0  0  0  0  0  0  0  0  0  0
    2.5220    0.4983    1.0361 H   0  0  0  0  0  0  0  0  0  0  0  0
    1.1163    1.5543    1.3134 H   0  0  0  0  0  0  0  0  0  0  0  0
   -0.5576    0.4642   -1.7839 H   0  0  0  0  0  0  0  0  0  0  0  0
   -0.6232    1.8302    0.9780 H   0  0  0  0  0  0  0  0  0  0  0  0
   -0.8477    2.8618   -0.4527 H   0  0  0  0  0  0  0  0  0  0  0  0
   -3.0324    3.3126   -0.8845 H   0  0  0  0  0  0  0  0  0  0  0  0
   -5.4028    2.6613   -1.0089 H   0  0  0  0  0  0  0  0  0  0  0  0
   -6.1009    0.3958   -0.3427 H   0  0  0  0  0  0  0  0  0  0  0  0
   -4.4425   -1.2182    0.4735 H   0  0  0  0  0  0  0  0  0  0  0  0
   -3.0765   -2.5144    0.8057 H   0  0  0  0  0  0  0  0  0  0  0  0
   -1.1410   -3.8965    1.7885 H   0  0  0  0  0  0  0  0  0  0  0  0
    0.2968   -1.9768   -0.1229 H   0  0  0  0  0  0  0  0  0  0  0  0
    1.3242   -4.2752    1.6864 H   0  0  0  0  0  0  0  0  0  0  0  0
    3.3149   -4.1002    0.3805 H   0  0  0  0  0  0  0  0  0  0  0  0
    2.9886   -1.1339    0.2866 H   0  0  0  0  0  0  0  0  0  0  0  0
    3.8241   -1.1139   -1.2856 H   0  0  0  0  0  0  0  0  0  0  0  0
  1  2  1  0  0  0  0
  1  3  1  0  0  0  0
  1  4  1  0  0  0  0
  1  5  1  0  0  0  0
  5  6  1  0  0  0  0
  6  7  1  0  0  0  0
  7  8  1  0  0  0  0
  8  9  2  0  0  0  0
  9 10  1  0  0  0  0
 10 11  1  0  0  0  0
 11 12  1  0  0  0  0
 12 13  2  0  0  0  0
 13 14  1  0  0  0  0
 14 15  2  0  0  0  0
 15 16  1  0  0  0  0
 11 16  2  0  0  0  0
 16 17  1  0  0  0  0
 17 18  1  0  0  0  0
 17 19  2  0  0  0  0
 19 20  1  0  0  0  0
 20 21  2  0  0  0  0
 21 22  1  0  0  0  0
 22 23  2  0  0  0  0
 23 24  1  0  0  0  0
 24 25  1  0  0  0  0
 25 26  1  0  0  0  0
  8 26  1  0  0  0  0
 26 27  2  0  0  0  0
  5 28  1  0  0  0  0
  5 29  1  0  0  0  0
  6 30  1  0  0  0  0
  6 31  1  0  0  0  0
  7 32  1  0  0  0  0
  7 33  1  0  0  0  0
  9 34  1  0  0  0  0
 10 35  1  0  0  0  0
 10 36  1  0  0  0  0
 12 37  1  0  0  0  0
 13 38  1  0  0  0  0
 14 39  1  0  0  0  0
 15 40  1  0  0  0  0
 19 41  1  0  0  0  0
 20 42  1  0  0  0  0
 21 43  1  0  0  0  0
 22 44  1  0  0  0  0
 23 45  1  0  0  0  0
 25 46  1  0  0  0  0
 25 47  1  0  0  0  0
M  CHG  1   1   1
M  END
$$$$
